
---------- Begin Simulation Statistics ----------
simSeconds                                   0.020359                       # Number of seconds simulated (Second)
simTicks                                  20358856000                       # Number of ticks simulated (Tick)
finalTick                                 21458009500                       # Number of ticks from beginning of simulation (restored from checkpoints and never reset) (Tick)
simFreq                                  1000000000000                       # The number of ticks per simulated second ((Tick/Second))
hostSeconds                                     13.92                       # Real time elapsed on the host (Second)
hostTickRate                               1462892514                       # The number of ticks simulated per host second (ticks/s) ((Tick/Second))
hostMemory                                    9676076                       # Number of bytes of host memory used (Byte)
simInsts                                     11000001                       # Number of instructions simulated (Count)
simOps                                       17407088                       # Number of ops (including micro ops) simulated (Count)
hostInstRate                                   790403                       # Simulator instruction rate (inst/s) ((Count/Second))
hostOpRate                                    1250782                       # Simulator op (including micro ops) rate (op/s) ((Count/Second))
system.clk_domain.clock                           500                       # Clock period in ticks (Tick)
system.cpu.numCycles                                0                       # Number of cpu cycles simulated (Cycle)
system.cpu.cpi                                    nan                       # CPI: cycles per instruction (core level) ((Cycle/Count))
system.cpu.ipc                                    nan                       # IPC: instructions per cycle (core level) ((Count/Cycle))
system.cpu.numWorkItemsStarted                      0                       # Number of work items this cpu started (Count)
system.cpu.numWorkItemsCompleted                    0                       # Number of work items this cpu completed (Count)
system.cpu.commitStats0.numOps                      0                       # Number of ops (including micro ops) committed (thread level) (Count)
system.cpu.commitStats0.numInstsNotNOP              0                       # Number of instructions committed excluding NOPs or prefetches (Count)
system.cpu.commitStats0.numOpsNotNOP                0                       # Number of Ops (including micro ops) Simulated (Count)
system.cpu.commitStats0.cpi                       nan                       # CPI: cycles per instruction (thread level) ((Cycle/Count))
system.cpu.commitStats0.ipc                       nan                       # IPC: instructions per cycle (thread level) ((Count/Cycle))
system.cpu.commitStats0.numMemRefs                  0                       # Number of memory references committed (Count)
system.cpu.commitStats0.numFpInsts                  0                       # Number of float instructions (Count)
system.cpu.commitStats0.numIntInsts                 0                       # Number of integer instructions (Count)
system.cpu.commitStats0.numLoadInsts                0                       # Number of load instructions (Count)
system.cpu.commitStats0.numStoreInsts               0                       # Number of store instructions (Count)
system.cpu.commitStats0.numVecInsts                 0                       # Number of vector instructions (Count)
system.cpu.commitStats0.committedInstType::No_OpClass            0                       # Class of committed instruction. (Count)
system.cpu.commitStats0.committedInstType::IntAlu            0                       # Class of committed instruction. (Count)
system.cpu.commitStats0.committedInstType::IntMult            0                       # Class of committed instruction. (Count)
system.cpu.commitStats0.committedInstType::IntDiv            0                       # Class of committed instruction. (Count)
system.cpu.commitStats0.committedInstType::FloatAdd            0                       # Class of committed instruction. (Count)
system.cpu.commitStats0.committedInstType::FloatCmp            0                       # Class of committed instruction. (Count)
system.cpu.commitStats0.committedInstType::FloatCvt            0                       # Class of committed instruction. (Count)
system.cpu.commitStats0.committedInstType::FloatMult            0                       # Class of committed instruction. (Count)
system.cpu.commitStats0.committedInstType::FloatMultAcc            0                       # Class of committed instruction. (Count)
system.cpu.commitStats0.committedInstType::FloatDiv            0                       # Class of committed instruction. (Count)
system.cpu.commitStats0.committedInstType::FloatMisc            0                       # Class of committed instruction. (Count)
system.cpu.commitStats0.committedInstType::FloatSqrt            0                       # Class of committed instruction. (Count)
system.cpu.commitStats0.committedInstType::SimdAdd            0                       # Class of committed instruction. (Count)
system.cpu.commitStats0.committedInstType::SimdAddAcc            0                       # Class of committed instruction. (Count)
system.cpu.commitStats0.committedInstType::SimdAlu            0                       # Class of committed instruction. (Count)
system.cpu.commitStats0.committedInstType::SimdCmp            0                       # Class of committed instruction. (Count)
system.cpu.commitStats0.committedInstType::SimdCvt            0                       # Class of committed instruction. (Count)
system.cpu.commitStats0.committedInstType::SimdMisc            0                       # Class of committed instruction. (Count)
system.cpu.commitStats0.committedInstType::SimdMult            0                       # Class of committed instruction. (Count)
system.cpu.commitStats0.committedInstType::SimdMultAcc            0                       # Class of committed instruction. (Count)
system.cpu.commitStats0.committedInstType::SimdMatMultAcc            0                       # Class of committed instruction. (Count)
system.cpu.commitStats0.committedInstType::SimdShift            0                       # Class of committed instruction. (Count)
system.cpu.commitStats0.committedInstType::SimdShiftAcc            0                       # Class of committed instruction. (Count)
system.cpu.commitStats0.committedInstType::SimdDiv            0                       # Class of committed instruction. (Count)
system.cpu.commitStats0.committedInstType::SimdSqrt            0                       # Class of committed instruction. (Count)
system.cpu.commitStats0.committedInstType::SimdFloatAdd            0                       # Class of committed instruction. (Count)
system.cpu.commitStats0.committedInstType::SimdFloatAlu            0                       # Class of committed instruction. (Count)
system.cpu.commitStats0.committedInstType::SimdFloatCmp            0                       # Class of committed instruction. (Count)
system.cpu.commitStats0.committedInstType::SimdFloatCvt            0                       # Class of committed instruction. (Count)
system.cpu.commitStats0.committedInstType::SimdFloatDiv            0                       # Class of committed instruction. (Count)
system.cpu.commitStats0.committedInstType::SimdFloatMisc            0                       # Class of committed instruction. (Count)
system.cpu.commitStats0.committedInstType::SimdFloatMult            0                       # Class of committed instruction. (Count)
system.cpu.commitStats0.committedInstType::SimdFloatMultAcc            0                       # Class of committed instruction. (Count)
system.cpu.commitStats0.committedInstType::SimdFloatMatMultAcc            0                       # Class of committed instruction. (Count)
system.cpu.commitStats0.committedInstType::SimdFloatSqrt            0                       # Class of committed instruction. (Count)
system.cpu.commitStats0.committedInstType::SimdReduceAdd            0                       # Class of committed instruction. (Count)
system.cpu.commitStats0.committedInstType::SimdReduceAlu            0                       # Class of committed instruction. (Count)
system.cpu.commitStats0.committedInstType::SimdReduceCmp            0                       # Class of committed instruction. (Count)
system.cpu.commitStats0.committedInstType::SimdFloatReduceAdd            0                       # Class of committed instruction. (Count)
system.cpu.commitStats0.committedInstType::SimdFloatReduceCmp            0                       # Class of committed instruction. (Count)
system.cpu.commitStats0.committedInstType::SimdAes            0                       # Class of committed instruction. (Count)
system.cpu.commitStats0.committedInstType::SimdAesMix            0                       # Class of committed instruction. (Count)
system.cpu.commitStats0.committedInstType::SimdSha1Hash            0                       # Class of committed instruction. (Count)
system.cpu.commitStats0.committedInstType::SimdSha1Hash2            0                       # Class of committed instruction. (Count)
system.cpu.commitStats0.committedInstType::SimdSha256Hash            0                       # Class of committed instruction. (Count)
system.cpu.commitStats0.committedInstType::SimdSha256Hash2            0                       # Class of committed instruction. (Count)
system.cpu.commitStats0.committedInstType::SimdShaSigma2            0                       # Class of committed instruction. (Count)
system.cpu.commitStats0.committedInstType::SimdShaSigma3            0                       # Class of committed instruction. (Count)
system.cpu.commitStats0.committedInstType::SimdPredAlu            0                       # Class of committed instruction. (Count)
system.cpu.commitStats0.committedInstType::Matrix            0                       # Class of committed instruction. (Count)
system.cpu.commitStats0.committedInstType::MatrixMov            0                       # Class of committed instruction. (Count)
system.cpu.commitStats0.committedInstType::MatrixOP            0                       # Class of committed instruction. (Count)
system.cpu.commitStats0.committedInstType::MemRead            0                       # Class of committed instruction. (Count)
system.cpu.commitStats0.committedInstType::MemWrite            0                       # Class of committed instruction. (Count)
system.cpu.commitStats0.committedInstType::FloatMemRead            0                       # Class of committed instruction. (Count)
system.cpu.commitStats0.committedInstType::FloatMemWrite            0                       # Class of committed instruction. (Count)
system.cpu.commitStats0.committedInstType::IprAccess            0                       # Class of committed instruction. (Count)
system.cpu.commitStats0.committedInstType::InstPrefetch            0                       # Class of committed instruction. (Count)
system.cpu.commitStats0.committedInstType::VectorUnitStrideLoad            0                       # Class of committed instruction. (Count)
system.cpu.commitStats0.committedInstType::VectorUnitStrideStore            0                       # Class of committed instruction. (Count)
system.cpu.commitStats0.committedInstType::VectorUnitStrideMaskLoad            0                       # Class of committed instruction. (Count)
system.cpu.commitStats0.committedInstType::VectorUnitStrideMaskStore            0                       # Class of committed instruction. (Count)
system.cpu.commitStats0.committedInstType::VectorStridedLoad            0                       # Class of committed instruction. (Count)
system.cpu.commitStats0.committedInstType::VectorStridedStore            0                       # Class of committed instruction. (Count)
system.cpu.commitStats0.committedInstType::VectorIndexedLoad            0                       # Class of committed instruction. (Count)
system.cpu.commitStats0.committedInstType::VectorIndexedStore            0                       # Class of committed instruction. (Count)
system.cpu.commitStats0.committedInstType::VectorUnitStrideFaultOnlyFirstLoad            0                       # Class of committed instruction. (Count)
system.cpu.commitStats0.committedInstType::VectorWholeRegisterLoad            0                       # Class of committed instruction. (Count)
system.cpu.commitStats0.committedInstType::VectorWholeRegisterStore            0                       # Class of committed instruction. (Count)
system.cpu.commitStats0.committedInstType::VectorIntegerArith            0                       # Class of committed instruction. (Count)
system.cpu.commitStats0.committedInstType::VectorFloatArith            0                       # Class of committed instruction. (Count)
system.cpu.commitStats0.committedInstType::VectorFloatConvert            0                       # Class of committed instruction. (Count)
system.cpu.commitStats0.committedInstType::VectorIntegerReduce            0                       # Class of committed instruction. (Count)
system.cpu.commitStats0.committedInstType::VectorFloatReduce            0                       # Class of committed instruction. (Count)
system.cpu.commitStats0.committedInstType::VectorMisc            0                       # Class of committed instruction. (Count)
system.cpu.commitStats0.committedInstType::VectorIntegerExtension            0                       # Class of committed instruction. (Count)
system.cpu.commitStats0.committedInstType::VectorConfig            0                       # Class of committed instruction. (Count)
system.cpu.commitStats0.committedInstType::total            0                       # Class of committed instruction. (Count)
system.cpu.exec_context.thread_0.numMatAluAccesses            0                       # Number of matrix alu accesses (Count)
system.cpu.exec_context.thread_0.numCallsReturns            0                       # Number of times a function call or return occured (Count)
system.cpu.exec_context.thread_0.numMatInsts            0                       # Number of matrix instructions (Count)
system.cpu.exec_context.thread_0.numIdleCycles            0                       # Number of idle cycles (Cycle)
system.cpu.exec_context.thread_0.numBusyCycles            0                       # Number of busy cycles (Cycle)
system.cpu.exec_context.thread_0.notIdleFraction            1                       # Percentage of non-idle cycles (Ratio)
system.cpu.exec_context.thread_0.idleFraction            0                       # Percentage of idle cycles (Ratio)
system.cpu.executeStats0.numInsts                   0                       # Number of executed instructions (Count)
system.cpu.executeStats0.numNop                     0                       # Number of nop insts executed (Count)
system.cpu.executeStats0.numBranches                0                       # Number of branches executed (Count)
system.cpu.executeStats0.numLoadInsts               0                       # Number of load instructions executed (Count)
system.cpu.executeStats0.numStoreInsts              0                       # Number of stores executed (Count)
system.cpu.executeStats0.instRate                 nan                       # Inst execution rate ((Count/Cycle))
system.cpu.executeStats0.numFpRegWrites             0                       # Number of times the floating registers were written (Count)
system.cpu.executeStats0.numMemRefs                 0                       # Number of memory refs (Count)
system.cpu.executeStats0.numVecAluAccesses            0                       # Number of vector alu accesses (Count)
system.cpu.executeStats0.numDiscardedOps            0                       # Number of ops (including micro ops) which were discarded before commit (Count)
system.cpu.fetchStats0.numInsts                     0                       # Number of instructions fetched (thread level) (Count)
system.cpu.fetchStats0.numOps                       0                       # Number of ops (including micro ops) fetched (thread level) (Count)
system.cpu.fetchStats0.fetchRate                  nan                       # Number of inst fetches per cycle ((Count/Cycle))
system.cpu.fetchStats0.branchRate                 nan                       # Number of branch fetches per cycle (Ratio)
system.cpu.fetchStats0.numFetchSuspends             0                       # Number of times Execute suspended instruction fetching (Count)
system.cpu.interrupts.clk_domain.clock           8000                       # Clock period in ticks (Tick)
system.cpu.mmu.dtb.rdAccesses                       0                       # TLB accesses on read requests (Count)
system.cpu.mmu.dtb.wrAccesses                       0                       # TLB accesses on write requests (Count)
system.cpu.mmu.dtb.rdMisses                         0                       # TLB misses on read requests (Count)
system.cpu.mmu.dtb.wrMisses                         0                       # TLB misses on write requests (Count)
system.cpu.mmu.dtb.walker.power_state.pwrStateResidencyTicks::UNDEFINED  21458009500                       # Cumulative time (in ticks) in various power states (Tick)
system.cpu.mmu.itb.rdAccesses                       0                       # TLB accesses on read requests (Count)
system.cpu.mmu.itb.wrAccesses                       0                       # TLB accesses on write requests (Count)
system.cpu.mmu.itb.rdMisses                         0                       # TLB misses on read requests (Count)
system.cpu.mmu.itb.wrMisses                         0                       # TLB misses on write requests (Count)
system.cpu.mmu.itb.walker.power_state.pwrStateResidencyTicks::UNDEFINED  21458009500                       # Cumulative time (in ticks) in various power states (Tick)
system.cpu.power_state.pwrStateResidencyTicks::OFF  20358856000                       # Cumulative time (in ticks) in various power states (Tick)
system.cpu.thread_0.numInsts                        0                       # Number of Instructions committed (Count)
system.cpu.thread_0.numOps                          0                       # Number of Ops committed (Count)
system.cpu.thread_0.numMemRefs                      0                       # Number of Memory References (Count)
system.cpu.workload.numSyscalls                    11                       # Number of system calls (Count)
system.cpu_clk_domain.clock                       500                       # Clock period in ticks (Tick)
system.cpu_voltage_domain.voltage                   1                       # Voltage in Volts (Volt)
system.mem_ctrls.avgPriority_ruby.dir_cntrl0::samples     42587.00                       # Average QoS priority value for accepted requests (Count)
system.mem_ctrls.priorityMinLatency      0.000000018750                       # per QoS priority minimum request to response latency (Second)
system.mem_ctrls.priorityMaxLatency      0.012594727500                       # per QoS priority maximum request to response latency (Second)
system.mem_ctrls.numReadWriteTurnArounds          174                       # Number of turnarounds from READ to WRITE (Count)
system.mem_ctrls.numWriteReadTurnArounds          174                       # Number of turnarounds from WRITE to READ (Count)
system.mem_ctrls.numStayReadState               87412                       # Number of times bus staying in READ state (Count)
system.mem_ctrls.numStayWriteState               2613                       # Number of times bus staying in WRITE state (Count)
system.mem_ctrls.readReqs                       39776                       # Number of read requests accepted (Count)
system.mem_ctrls.writeReqs                       2811                       # Number of write requests accepted (Count)
system.mem_ctrls.readBursts                     39776                       # Number of controller read bursts, including those serviced by the write queue (Count)
system.mem_ctrls.writeBursts                     2811                       # Number of controller write bursts, including those merged in the write queue (Count)
system.mem_ctrls.servicedByWrQ                      0                       # Number of controller read bursts serviced by the write queue (Count)
system.mem_ctrls.mergedWrBursts                     0                       # Number of controller write bursts merged with an existing one (Count)
system.mem_ctrls.neitherReadNorWriteReqs            0                       # Number of requests that are neither read nor write (Count)
system.mem_ctrls.avgRdQLen                       1.00                       # Average read queue length when enqueuing ((Count/Tick))
system.mem_ctrls.avgWrQLen                      20.19                       # Average write queue length when enqueuing ((Count/Tick))
system.mem_ctrls.numRdRetry                         0                       # Number of times read queue was full causing retry (Count)
system.mem_ctrls.numWrRetry                         0                       # Number of times write queue was full causing retry (Count)
system.mem_ctrls.readPktSize::0                     0                       # Read request sizes (log2) (Count)
system.mem_ctrls.readPktSize::1                     0                       # Read request sizes (log2) (Count)
system.mem_ctrls.readPktSize::2                     0                       # Read request sizes (log2) (Count)
system.mem_ctrls.readPktSize::3                     0                       # Read request sizes (log2) (Count)
system.mem_ctrls.readPktSize::4                     0                       # Read request sizes (log2) (Count)
system.mem_ctrls.readPktSize::5                     0                       # Read request sizes (log2) (Count)
system.mem_ctrls.readPktSize::6                 39776                       # Read request sizes (log2) (Count)
system.mem_ctrls.writePktSize::0                    0                       # Write request sizes (log2) (Count)
system.mem_ctrls.writePktSize::1                    0                       # Write request sizes (log2) (Count)
system.mem_ctrls.writePktSize::2                    0                       # Write request sizes (log2) (Count)
system.mem_ctrls.writePktSize::3                    0                       # Write request sizes (log2) (Count)
system.mem_ctrls.writePktSize::4                    0                       # Write request sizes (log2) (Count)
system.mem_ctrls.writePktSize::5                    0                       # Write request sizes (log2) (Count)
system.mem_ctrls.writePktSize::6                 2811                       # Write request sizes (log2) (Count)
system.mem_ctrls.rdQLenPdf::0                   39775                       # What read queue length does an incoming req see (Count)
system.mem_ctrls.rdQLenPdf::1                       1                       # What read queue length does an incoming req see (Count)
system.mem_ctrls.rdQLenPdf::2                       0                       # What read queue length does an incoming req see (Count)
system.mem_ctrls.rdQLenPdf::3                       0                       # What read queue length does an incoming req see (Count)
system.mem_ctrls.rdQLenPdf::4                       0                       # What read queue length does an incoming req see (Count)
system.mem_ctrls.rdQLenPdf::5                       0                       # What read queue length does an incoming req see (Count)
system.mem_ctrls.rdQLenPdf::6                       0                       # What read queue length does an incoming req see (Count)
system.mem_ctrls.rdQLenPdf::7                       0                       # What read queue length does an incoming req see (Count)
system.mem_ctrls.rdQLenPdf::8                       0                       # What read queue length does an incoming req see (Count)
system.mem_ctrls.rdQLenPdf::9                       0                       # What read queue length does an incoming req see (Count)
system.mem_ctrls.rdQLenPdf::10                      0                       # What read queue length does an incoming req see (Count)
system.mem_ctrls.rdQLenPdf::11                      0                       # What read queue length does an incoming req see (Count)
system.mem_ctrls.rdQLenPdf::12                      0                       # What read queue length does an incoming req see (Count)
system.mem_ctrls.rdQLenPdf::13                      0                       # What read queue length does an incoming req see (Count)
system.mem_ctrls.rdQLenPdf::14                      0                       # What read queue length does an incoming req see (Count)
system.mem_ctrls.rdQLenPdf::15                      0                       # What read queue length does an incoming req see (Count)
system.mem_ctrls.rdQLenPdf::16                      0                       # What read queue length does an incoming req see (Count)
system.mem_ctrls.rdQLenPdf::17                      0                       # What read queue length does an incoming req see (Count)
system.mem_ctrls.rdQLenPdf::18                      0                       # What read queue length does an incoming req see (Count)
system.mem_ctrls.rdQLenPdf::19                      0                       # What read queue length does an incoming req see (Count)
system.mem_ctrls.rdQLenPdf::20                      0                       # What read queue length does an incoming req see (Count)
system.mem_ctrls.rdQLenPdf::21                      0                       # What read queue length does an incoming req see (Count)
system.mem_ctrls.rdQLenPdf::22                      0                       # What read queue length does an incoming req see (Count)
system.mem_ctrls.rdQLenPdf::23                      0                       # What read queue length does an incoming req see (Count)
system.mem_ctrls.rdQLenPdf::24                      0                       # What read queue length does an incoming req see (Count)
system.mem_ctrls.rdQLenPdf::25                      0                       # What read queue length does an incoming req see (Count)
system.mem_ctrls.rdQLenPdf::26                      0                       # What read queue length does an incoming req see (Count)
system.mem_ctrls.rdQLenPdf::27                      0                       # What read queue length does an incoming req see (Count)
system.mem_ctrls.rdQLenPdf::28                      0                       # What read queue length does an incoming req see (Count)
system.mem_ctrls.rdQLenPdf::29                      0                       # What read queue length does an incoming req see (Count)
system.mem_ctrls.rdQLenPdf::30                      0                       # What read queue length does an incoming req see (Count)
system.mem_ctrls.rdQLenPdf::31                      0                       # What read queue length does an incoming req see (Count)
system.mem_ctrls.wrQLenPdf::0                       1                       # What write queue length does an incoming req see (Count)
system.mem_ctrls.wrQLenPdf::1                       1                       # What write queue length does an incoming req see (Count)
system.mem_ctrls.wrQLenPdf::2                       1                       # What write queue length does an incoming req see (Count)
system.mem_ctrls.wrQLenPdf::3                       1                       # What write queue length does an incoming req see (Count)
system.mem_ctrls.wrQLenPdf::4                       1                       # What write queue length does an incoming req see (Count)
system.mem_ctrls.wrQLenPdf::5                       1                       # What write queue length does an incoming req see (Count)
system.mem_ctrls.wrQLenPdf::6                       1                       # What write queue length does an incoming req see (Count)
system.mem_ctrls.wrQLenPdf::7                       1                       # What write queue length does an incoming req see (Count)
system.mem_ctrls.wrQLenPdf::8                       1                       # What write queue length does an incoming req see (Count)
system.mem_ctrls.wrQLenPdf::9                       1                       # What write queue length does an incoming req see (Count)
system.mem_ctrls.wrQLenPdf::10                      1                       # What write queue length does an incoming req see (Count)
system.mem_ctrls.wrQLenPdf::11                      1                       # What write queue length does an incoming req see (Count)
system.mem_ctrls.wrQLenPdf::12                      1                       # What write queue length does an incoming req see (Count)
system.mem_ctrls.wrQLenPdf::13                      1                       # What write queue length does an incoming req see (Count)
system.mem_ctrls.wrQLenPdf::14                      1                       # What write queue length does an incoming req see (Count)
system.mem_ctrls.wrQLenPdf::15                      1                       # What write queue length does an incoming req see (Count)
system.mem_ctrls.wrQLenPdf::16                      1                       # What write queue length does an incoming req see (Count)
system.mem_ctrls.wrQLenPdf::17                    174                       # What write queue length does an incoming req see (Count)
system.mem_ctrls.wrQLenPdf::18                    175                       # What write queue length does an incoming req see (Count)
system.mem_ctrls.wrQLenPdf::19                    175                       # What write queue length does an incoming req see (Count)
system.mem_ctrls.wrQLenPdf::20                    175                       # What write queue length does an incoming req see (Count)
system.mem_ctrls.wrQLenPdf::21                    175                       # What write queue length does an incoming req see (Count)
system.mem_ctrls.wrQLenPdf::22                    175                       # What write queue length does an incoming req see (Count)
system.mem_ctrls.wrQLenPdf::23                    176                       # What write queue length does an incoming req see (Count)
system.mem_ctrls.wrQLenPdf::24                    175                       # What write queue length does an incoming req see (Count)
system.mem_ctrls.wrQLenPdf::25                    175                       # What write queue length does an incoming req see (Count)
system.mem_ctrls.wrQLenPdf::26                    175                       # What write queue length does an incoming req see (Count)
system.mem_ctrls.wrQLenPdf::27                    174                       # What write queue length does an incoming req see (Count)
system.mem_ctrls.wrQLenPdf::28                    174                       # What write queue length does an incoming req see (Count)
system.mem_ctrls.wrQLenPdf::29                    174                       # What write queue length does an incoming req see (Count)
system.mem_ctrls.wrQLenPdf::30                    174                       # What write queue length does an incoming req see (Count)
system.mem_ctrls.wrQLenPdf::31                    174                       # What write queue length does an incoming req see (Count)
system.mem_ctrls.wrQLenPdf::32                    174                       # What write queue length does an incoming req see (Count)
system.mem_ctrls.wrQLenPdf::33                      0                       # What write queue length does an incoming req see (Count)
system.mem_ctrls.wrQLenPdf::34                      0                       # What write queue length does an incoming req see (Count)
system.mem_ctrls.wrQLenPdf::35                      0                       # What write queue length does an incoming req see (Count)
system.mem_ctrls.wrQLenPdf::36                      0                       # What write queue length does an incoming req see (Count)
system.mem_ctrls.wrQLenPdf::37                      0                       # What write queue length does an incoming req see (Count)
system.mem_ctrls.wrQLenPdf::38                      0                       # What write queue length does an incoming req see (Count)
system.mem_ctrls.wrQLenPdf::39                      0                       # What write queue length does an incoming req see (Count)
system.mem_ctrls.wrQLenPdf::40                      0                       # What write queue length does an incoming req see (Count)
system.mem_ctrls.wrQLenPdf::41                      0                       # What write queue length does an incoming req see (Count)
system.mem_ctrls.wrQLenPdf::42                      0                       # What write queue length does an incoming req see (Count)
system.mem_ctrls.wrQLenPdf::43                      0                       # What write queue length does an incoming req see (Count)
system.mem_ctrls.wrQLenPdf::44                      0                       # What write queue length does an incoming req see (Count)
system.mem_ctrls.wrQLenPdf::45                      0                       # What write queue length does an incoming req see (Count)
system.mem_ctrls.wrQLenPdf::46                      0                       # What write queue length does an incoming req see (Count)
system.mem_ctrls.wrQLenPdf::47                      0                       # What write queue length does an incoming req see (Count)
system.mem_ctrls.wrQLenPdf::48                      0                       # What write queue length does an incoming req see (Count)
system.mem_ctrls.wrQLenPdf::49                      0                       # What write queue length does an incoming req see (Count)
system.mem_ctrls.wrQLenPdf::50                      0                       # What write queue length does an incoming req see (Count)
system.mem_ctrls.wrQLenPdf::51                      0                       # What write queue length does an incoming req see (Count)
system.mem_ctrls.wrQLenPdf::52                      0                       # What write queue length does an incoming req see (Count)
system.mem_ctrls.wrQLenPdf::53                      0                       # What write queue length does an incoming req see (Count)
system.mem_ctrls.wrQLenPdf::54                      0                       # What write queue length does an incoming req see (Count)
system.mem_ctrls.wrQLenPdf::55                      0                       # What write queue length does an incoming req see (Count)
system.mem_ctrls.wrQLenPdf::56                      0                       # What write queue length does an incoming req see (Count)
system.mem_ctrls.wrQLenPdf::57                      0                       # What write queue length does an incoming req see (Count)
system.mem_ctrls.wrQLenPdf::58                      0                       # What write queue length does an incoming req see (Count)
system.mem_ctrls.wrQLenPdf::59                      0                       # What write queue length does an incoming req see (Count)
system.mem_ctrls.wrQLenPdf::60                      0                       # What write queue length does an incoming req see (Count)
system.mem_ctrls.wrQLenPdf::61                      0                       # What write queue length does an incoming req see (Count)
system.mem_ctrls.wrQLenPdf::62                      0                       # What write queue length does an incoming req see (Count)
system.mem_ctrls.wrQLenPdf::63                      0                       # What write queue length does an incoming req see (Count)
system.mem_ctrls.rdPerTurnAround::samples          174                       # Reads before turning the bus around for writes (Count)
system.mem_ctrls.rdPerTurnAround::mean     228.534483                       # Reads before turning the bus around for writes (Count)
system.mem_ctrls.rdPerTurnAround::gmean     36.108495                       # Reads before turning the bus around for writes (Count)
system.mem_ctrls.rdPerTurnAround::stdev   1388.796321                       # Reads before turning the bus around for writes (Count)
system.mem_ctrls.rdPerTurnAround::0-1023          169     97.13%     97.13% # Reads before turning the bus around for writes (Count)
system.mem_ctrls.rdPerTurnAround::1024-2047            2      1.15%     98.28% # Reads before turning the bus around for writes (Count)
system.mem_ctrls.rdPerTurnAround::2048-3071            1      0.57%     98.85% # Reads before turning the bus around for writes (Count)
system.mem_ctrls.rdPerTurnAround::7168-8191            1      0.57%     99.43% # Reads before turning the bus around for writes (Count)
system.mem_ctrls.rdPerTurnAround::16384-17407            1      0.57%    100.00% # Reads before turning the bus around for writes (Count)
system.mem_ctrls.rdPerTurnAround::total           174                       # Reads before turning the bus around for writes (Count)
system.mem_ctrls.wrPerTurnAround::samples          174                       # Writes before turning the bus around for reads (Count)
system.mem_ctrls.wrPerTurnAround::mean             16                       # Writes before turning the bus around for reads (Count)
system.mem_ctrls.wrPerTurnAround::gmean     16.000000                       # Writes before turning the bus around for reads (Count)
system.mem_ctrls.wrPerTurnAround::16              174    100.00%    100.00% # Writes before turning the bus around for reads (Count)
system.mem_ctrls.wrPerTurnAround::total           174                       # Writes before turning the bus around for reads (Count)
system.mem_ctrls.bytesReadWrQ                       0                       # Total number of bytes read from write queue (Byte)
system.mem_ctrls.bytesReadSys                 2545664                       # Total read bytes from the system interface side (Byte)
system.mem_ctrls.bytesWrittenSys               179904                       # Total written bytes from the system interface side (Byte)
system.mem_ctrls.avgRdBWSys              125039638.76948684                       # Average system read bandwidth in Byte/s ((Byte/Second))
system.mem_ctrls.avgWrBWSys              8836645.83118030                       # Average system write bandwidth in Byte/s ((Byte/Second))
system.mem_ctrls.totGap                   20264263000                       # Total gap between requests (Tick)
system.mem_ctrls.avgGap                     475832.13                       # Average gap between requests ((Tick/Count))
system.mem_ctrls.requestorReadBytes::ruby.dir_cntrl0      2545664                       # Per-requestor bytes read from memory (Byte)
system.mem_ctrls.requestorWriteBytes::ruby.dir_cntrl0       178176                       # Per-requestor bytes write to memory (Byte)
system.mem_ctrls.requestorReadRate::ruby.dir_cntrl0 125039638.769486844540                       # Per-requestor bytes read from memory rate ((Byte/Second))
system.mem_ctrls.requestorWriteRate::ruby.dir_cntrl0 8751768.763431500643                       # Per-requestor bytes write to memory rate ((Byte/Second))
system.mem_ctrls.requestorReadAccesses::ruby.dir_cntrl0        39776                       # Per-requestor read serviced memory accesses (Count)
system.mem_ctrls.requestorWriteAccesses::ruby.dir_cntrl0         2811                       # Per-requestor write serviced memory accesses (Count)
system.mem_ctrls.requestorReadTotalLat::ruby.dir_cntrl0    953316250                       # Per-requestor read total memory access latency (Tick)
system.mem_ctrls.requestorWriteTotalLat::ruby.dir_cntrl0 197372280000                       # Per-requestor write total memory access latency (Tick)
system.mem_ctrls.requestorReadAvgLat::ruby.dir_cntrl0     23967.12                       # Per-requestor read average memory access latency ((Tick/Count))
system.mem_ctrls.requestorWriteAvgLat::ruby.dir_cntrl0  70214258.27                       # Per-requestor write average memory access latency ((Tick/Count))
system.mem_ctrls.dram.bytesRead::ruby.dir_cntrl0      2545664                       # Number of bytes read from this memory (Byte)
system.mem_ctrls.dram.bytesRead::total        2545664                       # Number of bytes read from this memory (Byte)
system.mem_ctrls.dram.bytesWritten::ruby.dir_cntrl0       179904                       # Number of bytes written to this memory (Byte)
system.mem_ctrls.dram.bytesWritten::total       179904                       # Number of bytes written to this memory (Byte)
system.mem_ctrls.dram.numReads::ruby.dir_cntrl0        39776                       # Number of read requests responded to by this memory (Count)
system.mem_ctrls.dram.numReads::total           39776                       # Number of read requests responded to by this memory (Count)
system.mem_ctrls.dram.numWrites::ruby.dir_cntrl0         2811                       # Number of write requests responded to by this memory (Count)
system.mem_ctrls.dram.numWrites::total           2811                       # Number of write requests responded to by this memory (Count)
system.mem_ctrls.dram.bwRead::ruby.dir_cntrl0    125039639                       # Total read bandwidth from this memory ((Byte/Second))
system.mem_ctrls.dram.bwRead::total         125039639                       # Total read bandwidth from this memory ((Byte/Second))
system.mem_ctrls.dram.bwWrite::ruby.dir_cntrl0      8836646                       # Write bandwidth from this memory ((Byte/Second))
system.mem_ctrls.dram.bwWrite::total          8836646                       # Write bandwidth from this memory ((Byte/Second))
system.mem_ctrls.dram.bwTotal::ruby.dir_cntrl0    133876285                       # Total bandwidth to/from this memory ((Byte/Second))
system.mem_ctrls.dram.bwTotal::total        133876285                       # Total bandwidth to/from this memory ((Byte/Second))
system.mem_ctrls.dram.readBursts                39776                       # Number of DRAM read bursts (Count)
system.mem_ctrls.dram.writeBursts                2784                       # Number of DRAM write bursts (Count)
system.mem_ctrls.dram.perBankRdBursts::0         2652                       # Per bank write bursts (Count)
system.mem_ctrls.dram.perBankRdBursts::1         2900                       # Per bank write bursts (Count)
system.mem_ctrls.dram.perBankRdBursts::2         2646                       # Per bank write bursts (Count)
system.mem_ctrls.dram.perBankRdBursts::3         2418                       # Per bank write bursts (Count)
system.mem_ctrls.dram.perBankRdBursts::4         2409                       # Per bank write bursts (Count)
system.mem_ctrls.dram.perBankRdBursts::5         2445                       # Per bank write bursts (Count)
system.mem_ctrls.dram.perBankRdBursts::6         2310                       # Per bank write bursts (Count)
system.mem_ctrls.dram.perBankRdBursts::7         2313                       # Per bank write bursts (Count)
system.mem_ctrls.dram.perBankRdBursts::8         2551                       # Per bank write bursts (Count)
system.mem_ctrls.dram.perBankRdBursts::9         2374                       # Per bank write bursts (Count)
system.mem_ctrls.dram.perBankRdBursts::10         2527                       # Per bank write bursts (Count)
system.mem_ctrls.dram.perBankRdBursts::11         2374                       # Per bank write bursts (Count)
system.mem_ctrls.dram.perBankRdBursts::12         2586                       # Per bank write bursts (Count)
system.mem_ctrls.dram.perBankRdBursts::13         2395                       # Per bank write bursts (Count)
system.mem_ctrls.dram.perBankRdBursts::14         2427                       # Per bank write bursts (Count)
system.mem_ctrls.dram.perBankRdBursts::15         2449                       # Per bank write bursts (Count)
system.mem_ctrls.dram.perBankWrBursts::0          325                       # Per bank write bursts (Count)
system.mem_ctrls.dram.perBankWrBursts::1          456                       # Per bank write bursts (Count)
system.mem_ctrls.dram.perBankWrBursts::2          243                       # Per bank write bursts (Count)
system.mem_ctrls.dram.perBankWrBursts::3          146                       # Per bank write bursts (Count)
system.mem_ctrls.dram.perBankWrBursts::4           94                       # Per bank write bursts (Count)
system.mem_ctrls.dram.perBankWrBursts::5           76                       # Per bank write bursts (Count)
system.mem_ctrls.dram.perBankWrBursts::6           49                       # Per bank write bursts (Count)
system.mem_ctrls.dram.perBankWrBursts::7           41                       # Per bank write bursts (Count)
system.mem_ctrls.dram.perBankWrBursts::8          200                       # Per bank write bursts (Count)
system.mem_ctrls.dram.perBankWrBursts::9          160                       # Per bank write bursts (Count)
system.mem_ctrls.dram.perBankWrBursts::10          284                       # Per bank write bursts (Count)
system.mem_ctrls.dram.perBankWrBursts::11          156                       # Per bank write bursts (Count)
system.mem_ctrls.dram.perBankWrBursts::12          198                       # Per bank write bursts (Count)
system.mem_ctrls.dram.perBankWrBursts::13          116                       # Per bank write bursts (Count)
system.mem_ctrls.dram.perBankWrBursts::14          182                       # Per bank write bursts (Count)
system.mem_ctrls.dram.perBankWrBursts::15           58                       # Per bank write bursts (Count)
system.mem_ctrls.dram.totQLat               207516250                       # Total ticks spent queuing (Tick)
system.mem_ctrls.dram.totBusLat             198880000                       # Total ticks spent in databus transfers (Tick)
system.mem_ctrls.dram.totMemAccLat          953316250                       # Total ticks spent from burst creation until serviced by the DRAM (Tick)
system.mem_ctrls.dram.avgQLat                 5217.12                       # Average queueing delay per DRAM burst ((Tick/Count))
system.mem_ctrls.dram.avgBusLat               5000.00                       # Average bus latency per DRAM burst ((Tick/Count))
system.mem_ctrls.dram.avgMemAccLat           23967.12                       # Average memory access latency per DRAM burst ((Tick/Count))
system.mem_ctrls.dram.readRowHits               34204                       # Number of row buffer hits during reads (Count)
system.mem_ctrls.dram.writeRowHits               2379                       # Number of row buffer hits during writes (Count)
system.mem_ctrls.dram.readRowHitRate            85.99                       # Row buffer hit rate for reads (Ratio)
system.mem_ctrls.dram.writeRowHitRate           85.45                       # Row buffer hit rate for writes (Ratio)
system.mem_ctrls.dram.bytesPerActivate::samples         5977                       # Bytes accessed per row activation (Byte)
system.mem_ctrls.dram.bytesPerActivate::mean   455.720261                       # Bytes accessed per row activation (Byte)
system.mem_ctrls.dram.bytesPerActivate::gmean   245.799908                       # Bytes accessed per row activation (Byte)
system.mem_ctrls.dram.bytesPerActivate::stdev   423.190681                       # Bytes accessed per row activation (Byte)
system.mem_ctrls.dram.bytesPerActivate::0-127         2095     35.05%     35.05% # Bytes accessed per row activation (Byte)
system.mem_ctrls.dram.bytesPerActivate::128-255          963     16.11%     51.16% # Bytes accessed per row activation (Byte)
system.mem_ctrls.dram.bytesPerActivate::256-383          338      5.66%     56.82% # Bytes accessed per row activation (Byte)
system.mem_ctrls.dram.bytesPerActivate::384-511          185      3.10%     59.91% # Bytes accessed per row activation (Byte)
system.mem_ctrls.dram.bytesPerActivate::512-639          218      3.65%     63.56% # Bytes accessed per row activation (Byte)
system.mem_ctrls.dram.bytesPerActivate::640-767          110      1.84%     65.40% # Bytes accessed per row activation (Byte)
system.mem_ctrls.dram.bytesPerActivate::768-895          101      1.69%     67.09% # Bytes accessed per row activation (Byte)
system.mem_ctrls.dram.bytesPerActivate::896-1023          104      1.74%     68.83% # Bytes accessed per row activation (Byte)
system.mem_ctrls.dram.bytesPerActivate::1024-1151         1863     31.17%    100.00% # Bytes accessed per row activation (Byte)
system.mem_ctrls.dram.bytesPerActivate::total         5977                       # Bytes accessed per row activation (Byte)
system.mem_ctrls.dram.bytesRead               2545664                       # Total bytes read (Byte)
system.mem_ctrls.dram.bytesWritten             178176                       # Total bytes written (Byte)
system.mem_ctrls.dram.avgRdBW              125.039639                       # Average DRAM read bandwidth in MiBytes/s ((Byte/Second))
system.mem_ctrls.dram.avgWrBW                8.751769                       # Average DRAM write bandwidth in MiBytes/s ((Byte/Second))
system.mem_ctrls.dram.peakBW                 12800.00                       # Theoretical peak bandwidth in MiByte/s ((Byte/Second))
system.mem_ctrls.dram.busUtil                    1.05                       # Data bus utilization in percentage (Ratio)
system.mem_ctrls.dram.busUtilRead                0.98                       # Data bus utilization in percentage for reads (Ratio)
system.mem_ctrls.dram.busUtilWrite               0.07                       # Data bus utilization in percentage for writes (Ratio)
system.mem_ctrls.dram.pageHitRate               85.96                       # Row buffer hit rate, read and write combined (Ratio)
system.mem_ctrls.dram.power_state.pwrStateResidencyTicks::UNDEFINED  21458009500                       # Cumulative time (in ticks) in various power states (Tick)
system.mem_ctrls.dram.rank0.actEnergy        21448560                       # Energy for activate commands per rank (pJ) (Joule)
system.mem_ctrls.dram.rank0.preEnergy        11400180                       # Energy for precharge commands per rank (pJ) (Joule)
system.mem_ctrls.dram.rank0.readEnergy      143464020                       # Energy for read commands per rank (pJ) (Joule)
system.mem_ctrls.dram.rank0.writeEnergy       7464600                       # Energy for write commands per rank (pJ) (Joule)
system.mem_ctrls.dram.rank0.refreshEnergy 1606668960.000000                       # Energy for refresh commands per rank (pJ) (Joule)
system.mem_ctrls.dram.rank0.actBackEnergy   1793103720                       # Energy for active background per rank (pJ) (Joule)
system.mem_ctrls.dram.rank0.preBackEnergy   6307814880                       # Energy for precharge background per rank (pJ) (Joule)
system.mem_ctrls.dram.rank0.actPowerDownEnergy            0                       # Energy for active power-down per rank (pJ) (Joule)
system.mem_ctrls.dram.rank0.prePowerDownEnergy            0                       # Energy for precharge power-down per rank (pJ) (Joule)
system.mem_ctrls.dram.rank0.selfRefreshEnergy            0                       # Energy for self refresh per rank (pJ) (Joule)
system.mem_ctrls.dram.rank0.totalEnergy    9891364920                       # Total energy per rank (pJ) (Joule)
system.mem_ctrls.dram.rank0.averagePower   485.850724                       # Core power per rank (mW) (Watt)
system.mem_ctrls.dram.rank0.totalIdleTime            0                       # Total Idle time Per DRAM Rank (Tick)
system.mem_ctrls.dram.rank0.pwrStateTime::IDLE  16374339000                       # Time in different power states (Tick)
system.mem_ctrls.dram.rank0.pwrStateTime::REF    679640000                       # Time in different power states (Tick)
system.mem_ctrls.dram.rank0.pwrStateTime::SREF            0                       # Time in different power states (Tick)
system.mem_ctrls.dram.rank0.pwrStateTime::PRE_PDN            0                       # Time in different power states (Tick)
system.mem_ctrls.dram.rank0.pwrStateTime::ACT   3304877000                       # Time in different power states (Tick)
system.mem_ctrls.dram.rank0.pwrStateTime::ACT_PDN            0                       # Time in different power states (Tick)
system.mem_ctrls.dram.rank1.actEnergy        21227220                       # Energy for activate commands per rank (pJ) (Joule)
system.mem_ctrls.dram.rank1.preEnergy        11282535                       # Energy for precharge commands per rank (pJ) (Joule)
system.mem_ctrls.dram.rank1.readEnergy      140536620                       # Energy for read commands per rank (pJ) (Joule)
system.mem_ctrls.dram.rank1.writeEnergy       7067880                       # Energy for write commands per rank (pJ) (Joule)
system.mem_ctrls.dram.rank1.refreshEnergy 1606668960.000000                       # Energy for refresh commands per rank (pJ) (Joule)
system.mem_ctrls.dram.rank1.actBackEnergy   1981923630                       # Energy for active background per rank (pJ) (Joule)
system.mem_ctrls.dram.rank1.preBackEnergy   6148758240                       # Energy for precharge background per rank (pJ) (Joule)
system.mem_ctrls.dram.rank1.actPowerDownEnergy            0                       # Energy for active power-down per rank (pJ) (Joule)
system.mem_ctrls.dram.rank1.prePowerDownEnergy            0                       # Energy for precharge power-down per rank (pJ) (Joule)
system.mem_ctrls.dram.rank1.selfRefreshEnergy            0                       # Energy for self refresh per rank (pJ) (Joule)
system.mem_ctrls.dram.rank1.totalEnergy    9917465085                       # Total energy per rank (pJ) (Joule)
system.mem_ctrls.dram.rank1.averagePower   487.132729                       # Core power per rank (mW) (Watt)
system.mem_ctrls.dram.rank1.totalIdleTime            0                       # Total Idle time Per DRAM Rank (Tick)
system.mem_ctrls.dram.rank1.pwrStateTime::IDLE  15959246500                       # Time in different power states (Tick)
system.mem_ctrls.dram.rank1.pwrStateTime::REF    679640000                       # Time in different power states (Tick)
system.mem_ctrls.dram.rank1.pwrStateTime::SREF            0                       # Time in different power states (Tick)
system.mem_ctrls.dram.rank1.pwrStateTime::PRE_PDN            0                       # Time in different power states (Tick)
system.mem_ctrls.dram.rank1.pwrStateTime::ACT   3719969500                       # Time in different power states (Tick)
system.mem_ctrls.dram.rank1.pwrStateTime::ACT_PDN            0                       # Time in different power states (Tick)
system.mem_ctrls.power_state.pwrStateResidencyTicks::UNDEFINED  21458009500                       # Cumulative time (in ticks) in various power states (Tick)
system.ruby.delayHistogram::bucket_size             1                       # delay histogram for all message (Unspecified)
system.ruby.delayHistogram::max_bucket              9                       # delay histogram for all message (Unspecified)
system.ruby.delayHistogram::samples            246207                       # delay histogram for all message (Unspecified)
system.ruby.delayHistogram::mean             1.078263                       # delay histogram for all message (Unspecified)
system.ruby.delayHistogram::stdev            2.731920                       # delay histogram for all message (Unspecified)
system.ruby.delayHistogram               |      213021     86.52%     86.52% |           0      0.00%     86.52% |           2      0.00%     86.52% |           0      0.00%     86.52% |           0      0.00%     86.52% |           0      0.00%     86.52% |           0      0.00%     86.52% |           0      0.00%     86.52% |       33184     13.48%    100.00% |           0      0.00%    100.00% # delay histogram for all message (Unspecified)
system.ruby.delayHistogram::total              246207                       # delay histogram for all message (Unspecified)
system.ruby.m_outstandReqHistSeqr::bucket_size            1                       (Unspecified)
system.ruby.m_outstandReqHistSeqr::max_bucket            9                       (Unspecified)
system.ruby.m_outstandReqHistSeqr::samples     17882421                       (Unspecified)
system.ruby.m_outstandReqHistSeqr::mean      1.000001                       (Unspecified)
system.ruby.m_outstandReqHistSeqr::gmean     1.000001                       (Unspecified)
system.ruby.m_outstandReqHistSeqr::stdev     0.001084                       (Unspecified)
system.ruby.m_outstandReqHistSeqr        |           0      0.00%      0.00% |    17882400    100.00%    100.00% |          21      0.00%    100.00% |           0      0.00%    100.00% |           0      0.00%    100.00% |           0      0.00%    100.00% |           0      0.00%    100.00% |           0      0.00%    100.00% |           0      0.00%    100.00% |           0      0.00%    100.00% (Unspecified)
system.ruby.m_outstandReqHistSeqr::total     17882421                       (Unspecified)
system.ruby.m_latencyHistSeqr::bucket_size          128                       (Unspecified)
system.ruby.m_latencyHistSeqr::max_bucket         1279                       (Unspecified)
system.ruby.m_latencyHistSeqr::samples       17882420                       (Unspecified)
system.ruby.m_latencyHistSeqr::mean          1.276978                       (Unspecified)
system.ruby.m_latencyHistSeqr::gmean         1.010938                       (Unspecified)
system.ruby.m_latencyHistSeqr::stdev         6.345592                       (Unspecified)
system.ruby.m_latencyHistSeqr            |    17876804     99.97%     99.97% |        5007      0.03%    100.00% |          80      0.00%    100.00% |         127      0.00%    100.00% |         342      0.00%    100.00% |          58      0.00%    100.00% |           0      0.00%    100.00% |           1      0.00%    100.00% |           0      0.00%    100.00% |           1      0.00%    100.00% (Unspecified)
system.ruby.m_latencyHistSeqr::total         17882420                       (Unspecified)
system.ruby.m_hitLatencyHistSeqr::bucket_size            1                       (Unspecified)
system.ruby.m_hitLatencyHistSeqr::max_bucket            9                       (Unspecified)
system.ruby.m_hitLatencyHistSeqr::samples     17841345                       (Unspecified)
system.ruby.m_hitLatencyHistSeqr::mean              1                       (Unspecified)
system.ruby.m_hitLatencyHistSeqr::gmean             1                       (Unspecified)
system.ruby.m_hitLatencyHistSeqr         |           0      0.00%      0.00% |    17841345    100.00%    100.00% |           0      0.00%    100.00% |           0      0.00%    100.00% |           0      0.00%    100.00% |           0      0.00%    100.00% |           0      0.00%    100.00% |           0      0.00%    100.00% |           0      0.00%    100.00% |           0      0.00%    100.00% (Unspecified)
system.ruby.m_hitLatencyHistSeqr::total      17841345                       (Unspecified)
system.ruby.m_missLatencyHistSeqr::bucket_size          128                       (Unspecified)
system.ruby.m_missLatencyHistSeqr::max_bucket         1279                       (Unspecified)
system.ruby.m_missLatencyHistSeqr::samples        41075                       (Unspecified)
system.ruby.m_missLatencyHistSeqr::mean    121.585125                       (Unspecified)
system.ruby.m_missLatencyHistSeqr::gmean   113.973392                       (Unspecified)
system.ruby.m_missLatencyHistSeqr::stdev    54.983172                       (Unspecified)
system.ruby.m_missLatencyHistSeqr        |       35459     86.33%     86.33% |        5007     12.19%     98.52% |          80      0.19%     98.71% |         127      0.31%     99.02% |         342      0.83%     99.85% |          58      0.14%    100.00% |           0      0.00%    100.00% |           1      0.00%    100.00% |           0      0.00%    100.00% |           1      0.00%    100.00% (Unspecified)
system.ruby.m_missLatencyHistSeqr::total        41075                       (Unspecified)
system.ruby.delayVCHist.vnet_0::bucket_size            1                       # delay histogram for vnet_0 (Unspecified)
system.ruby.delayVCHist.vnet_0::max_bucket            9                       # delay histogram for vnet_0 (Unspecified)
system.ruby.delayVCHist.vnet_0::samples        118913                       # delay histogram for vnet_0 (Unspecified)
system.ruby.delayVCHist.vnet_0::mean         2.232523                       # delay histogram for vnet_0 (Unspecified)
system.ruby.delayVCHist.vnet_0::stdev        3.588305                       # delay histogram for vnet_0 (Unspecified)
system.ruby.delayVCHist.vnet_0           |       85727     72.09%     72.09% |           0      0.00%     72.09% |           2      0.00%     72.09% |           0      0.00%     72.09% |           0      0.00%     72.09% |           0      0.00%     72.09% |           0      0.00%     72.09% |           0      0.00%     72.09% |       33184     27.91%    100.00% |           0      0.00%    100.00% # delay histogram for vnet_0 (Unspecified)
system.ruby.delayVCHist.vnet_0::total          118913                       # delay histogram for vnet_0 (Unspecified)
system.ruby.delayVCHist.vnet_1::bucket_size            1                       # delay histogram for vnet_1 (Unspecified)
system.ruby.delayVCHist.vnet_1::max_bucket            9                       # delay histogram for vnet_1 (Unspecified)
system.ruby.delayVCHist.vnet_1::samples        126543                       # delay histogram for vnet_1 (Unspecified)
system.ruby.delayVCHist.vnet_1           |      126543    100.00%    100.00% |           0      0.00%    100.00% |           0      0.00%    100.00% |           0      0.00%    100.00% |           0      0.00%    100.00% |           0      0.00%    100.00% |           0      0.00%    100.00% |           0      0.00%    100.00% |           0      0.00%    100.00% |           0      0.00%    100.00% # delay histogram for vnet_1 (Unspecified)
system.ruby.delayVCHist.vnet_1::total          126543                       # delay histogram for vnet_1 (Unspecified)
system.ruby.delayVCHist.vnet_2::bucket_size            1                       # delay histogram for vnet_2 (Unspecified)
system.ruby.delayVCHist.vnet_2::max_bucket            9                       # delay histogram for vnet_2 (Unspecified)
system.ruby.delayVCHist.vnet_2::samples           751                       # delay histogram for vnet_2 (Unspecified)
system.ruby.delayVCHist.vnet_2           |         751    100.00%    100.00% |           0      0.00%    100.00% |           0      0.00%    100.00% |           0      0.00%    100.00% |           0      0.00%    100.00% |           0      0.00%    100.00% |           0      0.00%    100.00% |           0      0.00%    100.00% |           0      0.00%    100.00% |           0      0.00%    100.00% # delay histogram for vnet_2 (Unspecified)
system.ruby.delayVCHist.vnet_2::total             751                       # delay histogram for vnet_2 (Unspecified)
system.ruby.Directory_Controller.Fetch          39776      0.00%      0.00% (Unspecified)
system.ruby.Directory_Controller.Data            2811      0.00%      0.00% (Unspecified)
system.ruby.Directory_Controller.Memory_Data        39776      0.00%      0.00% (Unspecified)
system.ruby.Directory_Controller.Memory_Ack         2811      0.00%      0.00% (Unspecified)
system.ruby.Directory_Controller.CleanReplacement         4235      0.00%      0.00% (Unspecified)
system.ruby.Directory_Controller.I.Fetch        39776      0.00%      0.00% (Unspecified)
system.ruby.Directory_Controller.M.Data          2811      0.00%      0.00% (Unspecified)
system.ruby.Directory_Controller.M.CleanReplacement         4235      0.00%      0.00% (Unspecified)
system.ruby.Directory_Controller.IM.Memory_Data        39776      0.00%      0.00% (Unspecified)
system.ruby.Directory_Controller.MI.Memory_Ack         2811      0.00%      0.00% (Unspecified)
system.ruby.L1Cache_Controller.Load           2783602      0.00%      0.00% (Unspecified)
system.ruby.L1Cache_Controller.Ifetch        13385334      0.00%      0.00% (Unspecified)
system.ruby.L1Cache_Controller.Store          1713486      0.00%      0.00% (Unspecified)
system.ruby.L1Cache_Controller.Inv                751      0.00%      0.00% (Unspecified)
system.ruby.L1Cache_Controller.L1_Replacement        38197      0.00%      0.00% (Unspecified)
system.ruby.L1Cache_Controller.Data_Exclusive         5021      0.00%      0.00% (Unspecified)
system.ruby.L1Cache_Controller.Data_all_Acks        36054      0.00%      0.00% (Unspecified)
system.ruby.L1Cache_Controller.WB_Ack           37895      0.00%      0.00% (Unspecified)
system.ruby.L1Cache_Controller.NP.Load           5021      0.00%      0.00% (Unspecified)
system.ruby.L1Cache_Controller.NP.Ifetch         1071      0.00%      0.00% (Unspecified)
system.ruby.L1Cache_Controller.NP.Store         34922      0.00%      0.00% (Unspecified)
system.ruby.L1Cache_Controller.NP.Inv             181      0.00%      0.00% (Unspecified)
system.ruby.L1Cache_Controller.I.Ifetch            61      0.00%      0.00% (Unspecified)
system.ruby.L1Cache_Controller.I.L1_Replacement           38      0.00%      0.00% (Unspecified)
system.ruby.L1Cache_Controller.S.Ifetch      13384200      0.00%      0.00% (Unspecified)
system.ruby.L1Cache_Controller.S.Inv              570      0.00%      0.00% (Unspecified)
system.ruby.L1Cache_Controller.S.L1_Replacement          264      0.00%      0.00% (Unspecified)
system.ruby.L1Cache_Controller.E.Load          252549      0.00%      0.00% (Unspecified)
system.ruby.L1Cache_Controller.E.Store            163      0.00%      0.00% (Unspecified)
system.ruby.L1Cache_Controller.E.L1_Replacement         4711      0.00%      0.00% (Unspecified)
system.ruby.L1Cache_Controller.M.Load         2526032      0.00%      0.00% (Unspecified)
system.ruby.L1Cache_Controller.M.Store        1678401      0.00%      0.00% (Unspecified)
system.ruby.L1Cache_Controller.M.L1_Replacement        33184      0.00%      0.00% (Unspecified)
system.ruby.L1Cache_Controller.IS.Data_Exclusive         5021      0.00%      0.00% (Unspecified)
system.ruby.L1Cache_Controller.IS.Data_all_Acks         1132      0.00%      0.00% (Unspecified)
system.ruby.L1Cache_Controller.IM.Data_all_Acks        34922      0.00%      0.00% (Unspecified)
system.ruby.L1Cache_Controller.M_I.Ifetch            2      0.00%      0.00% (Unspecified)
system.ruby.L1Cache_Controller.M_I.WB_Ack        37895      0.00%      0.00% (Unspecified)
system.ruby.L2Cache_Controller.L1_GET_INSTR         1132      0.00%      0.00% (Unspecified)
system.ruby.L2Cache_Controller.L1_GETS           5021      0.00%      0.00% (Unspecified)
system.ruby.L2Cache_Controller.L1_GETX          34922      0.00%      0.00% (Unspecified)
system.ruby.L2Cache_Controller.L1_PUTX          37895      0.00%      0.00% (Unspecified)
system.ruby.L2Cache_Controller.L2_Replacement         2811      0.00%      0.00% (Unspecified)
system.ruby.L2Cache_Controller.L2_Replacement_clean         4235      0.00%      0.00% (Unspecified)
system.ruby.L2Cache_Controller.Mem_Data         39776      0.00%      0.00% (Unspecified)
system.ruby.L2Cache_Controller.Mem_Ack           7046      0.00%      0.00% (Unspecified)
system.ruby.L2Cache_Controller.Ack_all            751      0.00%      0.00% (Unspecified)
system.ruby.L2Cache_Controller.Exclusive_Unblock        39943      0.00%      0.00% (Unspecified)
system.ruby.L2Cache_Controller.NP.L1_GET_INSTR         1104      0.00%      0.00% (Unspecified)
system.ruby.L2Cache_Controller.NP.L1_GETS         4071      0.00%      0.00% (Unspecified)
system.ruby.L2Cache_Controller.NP.L1_GETX        34601      0.00%      0.00% (Unspecified)
system.ruby.L2Cache_Controller.SS.L1_GET_INSTR           26      0.00%      0.00% (Unspecified)
system.ruby.L2Cache_Controller.SS.L2_Replacement_clean          751      0.00%      0.00% (Unspecified)
system.ruby.L2Cache_Controller.M.L1_GET_INSTR            2      0.00%      0.00% (Unspecified)
system.ruby.L2Cache_Controller.M.L1_GETS          950      0.00%      0.00% (Unspecified)
system.ruby.L2Cache_Controller.M.L1_GETX          321      0.00%      0.00% (Unspecified)
system.ruby.L2Cache_Controller.M.L2_Replacement         2811      0.00%      0.00% (Unspecified)
system.ruby.L2Cache_Controller.M.L2_Replacement_clean         3484      0.00%      0.00% (Unspecified)
system.ruby.L2Cache_Controller.MT.L1_PUTX        37895      0.00%      0.00% (Unspecified)
system.ruby.L2Cache_Controller.M_I.Mem_Ack         7046      0.00%      0.00% (Unspecified)
system.ruby.L2Cache_Controller.I_I.Ack_all          751      0.00%      0.00% (Unspecified)
system.ruby.L2Cache_Controller.ISS.Mem_Data         4071      0.00%      0.00% (Unspecified)
system.ruby.L2Cache_Controller.IS.Mem_Data         1104      0.00%      0.00% (Unspecified)
system.ruby.L2Cache_Controller.IM.Mem_Data        34601      0.00%      0.00% (Unspecified)
system.ruby.L2Cache_Controller.MT_MB.Exclusive_Unblock        39943      0.00%      0.00% (Unspecified)
system.ruby.RequestType.LD.latency_hist_seqr::bucket_size          128                       (Unspecified)
system.ruby.RequestType.LD.latency_hist_seqr::max_bucket         1279                       (Unspecified)
system.ruby.RequestType.LD.latency_hist_seqr::samples      2783602                       (Unspecified)
system.ruby.RequestType.LD.latency_hist_seqr::mean     1.207529                       (Unspecified)
system.ruby.RequestType.LD.latency_hist_seqr::gmean     1.008178                       (Unspecified)
system.ruby.RequestType.LD.latency_hist_seqr::stdev     5.668408                       (Unspecified)
system.ruby.RequestType.LD.latency_hist_seqr |     2781226     99.91%     99.91% |        2299      0.08%    100.00% |          21      0.00%    100.00% |          23      0.00%    100.00% |          24      0.00%    100.00% |           9      0.00%    100.00% |           0      0.00%    100.00% |           0      0.00%    100.00% |           0      0.00%    100.00% |           0      0.00%    100.00% (Unspecified)
system.ruby.RequestType.LD.latency_hist_seqr::total      2783602                       (Unspecified)
system.ruby.RequestType.LD.hit_latency_hist_seqr::bucket_size            1                       (Unspecified)
system.ruby.RequestType.LD.hit_latency_hist_seqr::max_bucket            9                       (Unspecified)
system.ruby.RequestType.LD.hit_latency_hist_seqr::samples      2778581                       (Unspecified)
system.ruby.RequestType.LD.hit_latency_hist_seqr::mean            1                       (Unspecified)
system.ruby.RequestType.LD.hit_latency_hist_seqr::gmean            1                       (Unspecified)
system.ruby.RequestType.LD.hit_latency_hist_seqr |           0      0.00%      0.00% |     2778581    100.00%    100.00% |           0      0.00%    100.00% |           0      0.00%    100.00% |           0      0.00%    100.00% |           0      0.00%    100.00% |           0      0.00%    100.00% |           0      0.00%    100.00% |           0      0.00%    100.00% |           0      0.00%    100.00% (Unspecified)
system.ruby.RequestType.LD.hit_latency_hist_seqr::total      2778581                       (Unspecified)
system.ruby.RequestType.LD.miss_latency_hist_seqr::bucket_size          128                       (Unspecified)
system.ruby.RequestType.LD.miss_latency_hist_seqr::max_bucket         1279                       (Unspecified)
system.ruby.RequestType.LD.miss_latency_hist_seqr::samples         5021                       (Unspecified)
system.ruby.RequestType.LD.miss_latency_hist_seqr::mean   116.052380                       (Unspecified)
system.ruby.RequestType.LD.miss_latency_hist_seqr::gmean    91.413862                       (Unspecified)
system.ruby.RequestType.LD.miss_latency_hist_seqr::stdev    67.829364                       (Unspecified)
system.ruby.RequestType.LD.miss_latency_hist_seqr |        2645     52.68%     52.68% |        2299     45.79%     98.47% |          21      0.42%     98.88% |          23      0.46%     99.34% |          24      0.48%     99.82% |           9      0.18%    100.00% |           0      0.00%    100.00% |           0      0.00%    100.00% |           0      0.00%    100.00% |           0      0.00%    100.00% (Unspecified)
system.ruby.RequestType.LD.miss_latency_hist_seqr::total         5021                       (Unspecified)
system.ruby.RequestType.ST.latency_hist_seqr::bucket_size          128                       (Unspecified)
system.ruby.RequestType.ST.latency_hist_seqr::max_bucket         1279                       (Unspecified)
system.ruby.RequestType.ST.latency_hist_seqr::samples      1710311                       (Unspecified)
system.ruby.RequestType.ST.latency_hist_seqr::mean     3.465725                       (Unspecified)
system.ruby.RequestType.ST.latency_hist_seqr::gmean     1.101775                       (Unspecified)
system.ruby.RequestType.ST.latency_hist_seqr::stdev    18.696549                       (Unspecified)
system.ruby.RequestType.ST.latency_hist_seqr |     1707417     99.83%     99.83% |        2381      0.14%     99.97% |          55      0.00%     99.97% |         101      0.01%     99.98% |         310      0.02%    100.00% |          45      0.00%    100.00% |           0      0.00%    100.00% |           1      0.00%    100.00% |           0      0.00%    100.00% |           1      0.00%    100.00% (Unspecified)
system.ruby.RequestType.ST.latency_hist_seqr::total      1710311                       (Unspecified)
system.ruby.RequestType.ST.hit_latency_hist_seqr::bucket_size            1                       (Unspecified)
system.ruby.RequestType.ST.hit_latency_hist_seqr::max_bucket            9                       (Unspecified)
system.ruby.RequestType.ST.hit_latency_hist_seqr::samples      1675535                       (Unspecified)
system.ruby.RequestType.ST.hit_latency_hist_seqr::mean            1                       (Unspecified)
system.ruby.RequestType.ST.hit_latency_hist_seqr::gmean            1                       (Unspecified)
system.ruby.RequestType.ST.hit_latency_hist_seqr |           0      0.00%      0.00% |     1675535    100.00%    100.00% |           0      0.00%    100.00% |           0      0.00%    100.00% |           0      0.00%    100.00% |           0      0.00%    100.00% |           0      0.00%    100.00% |           0      0.00%    100.00% |           0      0.00%    100.00% |           0      0.00%    100.00% (Unspecified)
system.ruby.RequestType.ST.hit_latency_hist_seqr::total      1675535                       (Unspecified)
system.ruby.RequestType.ST.miss_latency_hist_seqr::bucket_size          128                       (Unspecified)
system.ruby.RequestType.ST.miss_latency_hist_seqr::max_bucket         1279                       (Unspecified)
system.ruby.RequestType.ST.miss_latency_hist_seqr::samples        34776                       (Unspecified)
system.ruby.RequestType.ST.miss_latency_hist_seqr::mean   122.266304                       (Unspecified)
system.ruby.RequestType.ST.miss_latency_hist_seqr::gmean   117.533035                       (Unspecified)
system.ruby.RequestType.ST.miss_latency_hist_seqr::stdev    52.775425                       (Unspecified)
system.ruby.RequestType.ST.miss_latency_hist_seqr |       31882     91.68%     91.68% |        2381      6.85%     98.52% |          55      0.16%     98.68% |         101      0.29%     98.97% |         310      0.89%     99.86% |          45      0.13%     99.99% |           0      0.00%     99.99% |           1      0.00%    100.00% |           0      0.00%    100.00% |           1      0.00%    100.00% (Unspecified)
system.ruby.RequestType.ST.miss_latency_hist_seqr::total        34776                       (Unspecified)
system.ruby.RequestType.IFETCH.latency_hist_seqr::bucket_size          128                       (Unspecified)
system.ruby.RequestType.IFETCH.latency_hist_seqr::max_bucket         1279                       (Unspecified)
system.ruby.RequestType.IFETCH.latency_hist_seqr::samples     13385332                       (Unspecified)
system.ruby.RequestType.IFETCH.latency_hist_seqr::mean     1.010463                       (Unspecified)
system.ruby.RequestType.IFETCH.latency_hist_seqr::gmean     1.000403                       (Unspecified)
system.ruby.RequestType.IFETCH.latency_hist_seqr::stdev     1.237418                       (Unspecified)
system.ruby.RequestType.IFETCH.latency_hist_seqr |    13385005    100.00%    100.00% |         311      0.00%    100.00% |           4      0.00%    100.00% |           3      0.00%    100.00% |           7      0.00%    100.00% |           2      0.00%    100.00% |           0      0.00%    100.00% |           0      0.00%    100.00% |           0      0.00%    100.00% |           0      0.00%    100.00% (Unspecified)
system.ruby.RequestType.IFETCH.latency_hist_seqr::total     13385332                       (Unspecified)
system.ruby.RequestType.IFETCH.hit_latency_hist_seqr::bucket_size            1                       (Unspecified)
system.ruby.RequestType.IFETCH.hit_latency_hist_seqr::max_bucket            9                       (Unspecified)
system.ruby.RequestType.IFETCH.hit_latency_hist_seqr::samples     13384200                       (Unspecified)
system.ruby.RequestType.IFETCH.hit_latency_hist_seqr::mean            1                       (Unspecified)
system.ruby.RequestType.IFETCH.hit_latency_hist_seqr::gmean            1                       (Unspecified)
system.ruby.RequestType.IFETCH.hit_latency_hist_seqr |           0      0.00%      0.00% |    13384200    100.00%    100.00% |           0      0.00%    100.00% |           0      0.00%    100.00% |           0      0.00%    100.00% |           0      0.00%    100.00% |           0      0.00%    100.00% |           0      0.00%    100.00% |           0      0.00%    100.00% |           0      0.00%    100.00% (Unspecified)
system.ruby.RequestType.IFETCH.hit_latency_hist_seqr::total     13384200                       (Unspecified)
system.ruby.RequestType.IFETCH.miss_latency_hist_seqr::bucket_size          128                       (Unspecified)
system.ruby.RequestType.IFETCH.miss_latency_hist_seqr::max_bucket         1279                       (Unspecified)
system.ruby.RequestType.IFETCH.miss_latency_hist_seqr::samples         1132                       (Unspecified)
system.ruby.RequestType.IFETCH.miss_latency_hist_seqr::mean   124.721731                       (Unspecified)
system.ruby.RequestType.IFETCH.miss_latency_hist_seqr::gmean   117.439585                       (Unspecified)
system.ruby.RequestType.IFETCH.miss_latency_hist_seqr::stdev    52.937924                       (Unspecified)
system.ruby.RequestType.IFETCH.miss_latency_hist_seqr |         805     71.11%     71.11% |         311     27.47%     98.59% |           4      0.35%     98.94% |           3      0.27%     99.20% |           7      0.62%     99.82% |           2      0.18%    100.00% |           0      0.00%    100.00% |           0      0.00%    100.00% |           0      0.00%    100.00% |           0      0.00%    100.00% (Unspecified)
system.ruby.RequestType.IFETCH.miss_latency_hist_seqr::total         1132                       (Unspecified)
system.ruby.RequestType.RMW_Read.latency_hist_seqr::bucket_size          128                       (Unspecified)
[...]
system.switch_cpus.commitStats0.numInsts     10000043                       # Number of instructions committed (thread level) (Count)
system.switch_cpus.commitStats0.numOps       15558544                       # Number of ops (including micro ops) committed (thread level) (Count)
system.switch_cpus.commitStats0.numInstsNotNOP            0                       # Number of instructions committed excluding NOPs or prefetches (Count)
system.switch_cpus.commitStats0.numOpsNotNOP            0                       # Number of Ops (including micro ops) Simulated (Count)
system.switch_cpus.commitStats0.cpi          4.071754                       # CPI: cycles per instruction (thread level) ((Cycle/Count))
system.switch_cpus.commitStats0.ipc          0.245594                       # IPC: instructions per cycle (thread level) ((Count/Cycle))
system.switch_cpus.commitStats0.numMemRefs            0                       # Number of memory references committed (Count)
system.switch_cpus.commitStats0.numFpInsts       322337                       # Number of float instructions (Count)
system.switch_cpus.commitStats0.numIntInsts     15486085                       # Number of integer instructions (Count)
system.switch_cpus.commitStats0.numLoadInsts      2786763                       # Number of load instructions (Count)
system.switch_cpus.commitStats0.numStoreInsts      1710890                       # Number of store instructions (Count)
system.switch_cpus.commitStats0.numVecInsts            0                       # Number of vector instructions (Count)
system.switch_cpus.commitStats0.committedInstType::No_OpClass        37377      0.24%      0.24% # Class of committed instruction. (Count)
system.switch_cpus.commitStats0.committedInstType::IntAlu     10952627     70.40%     70.64% # Class of committed instruction. (Count)
system.switch_cpus.commitStats0.committedInstType::IntMult        19493      0.13%     70.76% # Class of committed instruction. (Count)
system.switch_cpus.commitStats0.committedInstType::IntDiv        14501      0.09%     70.85% # Class of committed instruction. (Count)
system.switch_cpus.commitStats0.committedInstType::FloatAdd         5694      0.04%     70.89% # Class of committed instruction. (Count)
system.switch_cpus.commitStats0.committedInstType::FloatCmp            0      0.00%     70.89% # Class of committed instruction. (Count)
system.switch_cpus.commitStats0.committedInstType::FloatCvt         1104      0.01%     70.90% # Class of committed instruction. (Count)
system.switch_cpus.commitStats0.committedInstType::FloatMult            0      0.00%     70.90% # Class of committed instruction. (Count)
system.switch_cpus.commitStats0.committedInstType::FloatMultAcc            0      0.00%     70.90% # Class of committed instruction. (Count)
system.switch_cpus.commitStats0.committedInstType::FloatDiv            0      0.00%     70.90% # Class of committed instruction. (Count)
system.switch_cpus.commitStats0.committedInstType::FloatMisc            0      0.00%     70.90% # Class of committed instruction. (Count)
system.switch_cpus.commitStats0.committedInstType::FloatSqrt            0      0.00%     70.90% # Class of committed instruction. (Count)
system.switch_cpus.commitStats0.committedInstType::SimdAdd         2146      0.01%     70.91% # Class of committed instruction. (Count)
system.switch_cpus.commitStats0.committedInstType::SimdAddAcc            0      0.00%     70.91% # Class of committed instruction. (Count)
system.switch_cpus.commitStats0.committedInstType::SimdAlu         9491      0.06%     70.97% # Class of committed instruction. (Count)
system.switch_cpus.commitStats0.committedInstType::SimdCmp            0      0.00%     70.97% # Class of committed instruction. (Count)
system.switch_cpus.commitStats0.committedInstType::SimdCvt         4514      0.03%     71.00% # Class of committed instruction. (Count)
system.switch_cpus.commitStats0.committedInstType::SimdMisc         6402      0.04%     71.04% # Class of committed instruction. (Count)
system.switch_cpus.commitStats0.committedInstType::SimdMult            0      0.00%     71.04% # Class of committed instruction. (Count)
system.switch_cpus.commitStats0.committedInstType::SimdMultAcc            0      0.00%     71.04% # Class of committed instruction. (Count)
system.switch_cpus.commitStats0.committedInstType::SimdMatMultAcc            0      0.00%     71.04% # Class of committed instruction. (Count)
system.switch_cpus.commitStats0.committedInstType::SimdShift          813      0.01%     71.05% # Class of committed instruction. (Count)
system.switch_cpus.commitStats0.committedInstType::SimdShiftAcc            0      0.00%     71.05% # Class of committed instruction. (Count)
system.switch_cpus.commitStats0.committedInstType::SimdDiv            0      0.00%     71.05% # Class of committed instruction. (Count)
system.switch_cpus.commitStats0.committedInstType::SimdSqrt            0      0.00%     71.05% # Class of committed instruction. (Count)
system.switch_cpus.commitStats0.committedInstType::SimdFloatAdd            0      0.00%     71.05% # Class of committed instruction. (Count)
system.switch_cpus.commitStats0.committedInstType::SimdFloatAlu            0      0.00%     71.05% # Class of committed instruction. (Count)
system.switch_cpus.commitStats0.committedInstType::SimdFloatCmp            0      0.00%     71.05% # Class of committed instruction. (Count)
system.switch_cpus.commitStats0.committedInstType::SimdFloatCvt         4486      0.03%     71.08% # Class of committed instruction. (Count)
system.switch_cpus.commitStats0.committedInstType::SimdFloatDiv            0      0.00%     71.08% # Class of committed instruction. (Count)
system.switch_cpus.commitStats0.committedInstType::SimdFloatMisc            0      0.00%     71.08% # Class of committed instruction. (Count)
system.switch_cpus.commitStats0.committedInstType::SimdFloatMult         2243      0.01%     71.09% # Class of committed instruction. (Count)
system.switch_cpus.commitStats0.committedInstType::SimdFloatMultAcc            0      0.00%     71.09% # Class of committed instruction. (Count)
system.switch_cpus.commitStats0.committedInstType::SimdFloatMatMultAcc            0      0.00%     71.09% # Class of committed instruction. (Count)
system.switch_cpus.commitStats0.committedInstType::SimdFloatSqrt            0      0.00%     71.09% # Class of committed instruction. (Count)
system.switch_cpus.commitStats0.committedInstType::SimdReduceAdd            0      0.00%     71.09% # Class of committed instruction. (Count)
system.switch_cpus.commitStats0.committedInstType::SimdReduceAlu            0      0.00%     71.09% # Class of committed instruction. (Count)
system.switch_cpus.commitStats0.committedInstType::SimdReduceCmp            0      0.00%     71.09% # Class of committed instruction. (Count)
system.switch_cpus.commitStats0.committedInstType::SimdFloatReduceAdd            0      0.00%     71.09% # Class of committed instruction. (Count)
system.switch_cpus.commitStats0.committedInstType::SimdFloatReduceCmp            0      0.00%     71.09% # Class of committed instruction. (Count)
system.switch_cpus.commitStats0.committedInstType::SimdAes            0      0.00%     71.09% # Class of committed instruction. (Count)
system.switch_cpus.commitStats0.committedInstType::SimdAesMix            0      0.00%     71.09% # Class of committed instruction. (Count)
system.switch_cpus.commitStats0.committedInstType::SimdSha1Hash            0      0.00%     71.09% # Class of committed instruction. (Count)
system.switch_cpus.commitStats0.committedInstType::SimdSha1Hash2            0      0.00%     71.09% # Class of committed instruction. (Count)
system.switch_cpus.commitStats0.committedInstType::SimdSha256Hash            0      0.00%     71.09% # Class of committed instruction. (Count)
system.switch_cpus.commitStats0.committedInstType::SimdSha256Hash2            0      0.00%     71.09% # Class of committed instruction. (Count)
system.switch_cpus.commitStats0.committedInstType::SimdShaSigma2            0      0.00%     71.09% # Class of committed instruction. (Count)
system.switch_cpus.commitStats0.committedInstType::SimdShaSigma3            0      0.00%     71.09% # Class of committed instruction. (Count)
system.switch_cpus.commitStats0.committedInstType::SimdPredAlu            0      0.00%     71.09% # Class of committed instruction. (Count)
system.switch_cpus.commitStats0.committedInstType::Matrix            0      0.00%     71.09% # Class of committed instruction. (Count)
system.switch_cpus.commitStats0.committedInstType::MatrixMov            0      0.00%     71.09% # Class of committed instruction. (Count)
system.switch_cpus.commitStats0.committedInstType::MatrixOP            0      0.00%     71.09% # Class of committed instruction. (Count)
system.switch_cpus.commitStats0.committedInstType::MemRead      2773319     17.83%     88.92% # Class of committed instruction. (Count)
system.switch_cpus.commitStats0.committedInstType::MemWrite      1440212      9.26%     98.17% # Class of committed instruction. (Count)
system.switch_cpus.commitStats0.committedInstType::FloatMemRead        13444      0.09%     98.26% # Class of committed instruction. (Count)
system.switch_cpus.commitStats0.committedInstType::FloatMemWrite       270678      1.74%    100.00% # Class of committed instruction. (Count)
system.switch_cpus.commitStats0.committedInstType::IprAccess            0      0.00%    100.00% # Class of committed instruction. (Count)
system.switch_cpus.commitStats0.committedInstType::InstPrefetch            0      0.00%    100.00% # Class of committed instruction. (Count)
system.switch_cpus.commitStats0.committedInstType::VectorUnitStrideLoad            0      0.00%    100.00% # Class of committed instruction. (Count)
system.switch_cpus.commitStats0.committedInstType::VectorUnitStrideStore            0      0.00%    100.00% # Class of committed instruction. (Count)
system.switch_cpus.commitStats0.committedInstType::VectorUnitStrideMaskLoad            0      0.00%    100.00% # Class of committed instruction. (Count)
system.switch_cpus.commitStats0.committedInstType::VectorUnitStrideMaskStore            0      0.00%    100.00% # Class of committed instruction. (Count)
system.switch_cpus.commitStats0.committedInstType::VectorStridedLoad            0      0.00%    100.00% # Class of committed instruction. (Count)
system.switch_cpus.commitStats0.committedInstType::VectorStridedStore            0      0.00%    100.00% # Class of committed instruction. (Count)
system.switch_cpus.commitStats0.committedInstType::VectorIndexedLoad            0      0.00%    100.00% # Class of committed instruction. (Count)
system.switch_cpus.commitStats0.committedInstType::VectorIndexedStore            0      0.00%    100.00% # Class of committed instruction. (Count)
system.switch_cpus.commitStats0.committedInstType::VectorUnitStrideFaultOnlyFirstLoad            0      0.00%    100.00% # Class of committed instruction. (Count)
system.switch_cpus.commitStats0.committedInstType::VectorWholeRegisterLoad            0      0.00%    100.00% # Class of committed instruction. (Count)
system.switch_cpus.commitStats0.committedInstType::VectorWholeRegisterStore            0      0.00%    100.00% # Class of committed instruction. (Count)
system.switch_cpus.commitStats0.committedInstType::VectorIntegerArith            0      0.00%    100.00% # Class of committed instruction. (Count)
system.switch_cpus.commitStats0.committedInstType::VectorFloatArith            0      0.00%    100.00% # Class of committed instruction. (Count)
system.switch_cpus.commitStats0.committedInstType::VectorFloatConvert            0      0.00%    100.00% # Class of committed instruction. (Count)
system.switch_cpus.commitStats0.committedInstType::VectorIntegerReduce            0      0.00%    100.00% # Class of committed instruction. (Count)
system.switch_cpus.commitStats0.committedInstType::VectorFloatReduce            0      0.00%    100.00% # Class of committed instruction. (Count)
system.switch_cpus.commitStats0.committedInstType::VectorMisc            0      0.00%    100.00% # Class of committed instruction. (Count)
system.switch_cpus.commitStats0.committedInstType::VectorIntegerExtension            0      0.00%    100.00% # Class of committed instruction. (Count)
system.switch_cpus.commitStats0.committedInstType::VectorConfig            0      0.00%    100.00% # Class of committed instruction. (Count)
system.switch_cpus.commitStats0.committedInstType::total     15558544                       # Class of committed instruction. (Count)
system.switch_cpus.commitStats0.committedControl::IsControl      1150771                       # Class of control type instructions committed (Count)
system.switch_cpus.commitStats0.committedControl::IsDirectControl       963731                       # Class of control type instructions committed (Count)
system.switch_cpus.commitStats0.committedControl::IsIndirectControl       186908                       # Class of control type instructions committed (Count)
system.switch_cpus.commitStats0.committedControl::IsCondControl       753413                       # Class of control type instructions committed (Count)
system.switch_cpus.commitStats0.committedControl::IsUncondControl       397226                       # Class of control type instructions committed (Count)
system.switch_cpus.commitStats0.committedControl::IsCall       181757                       # Class of control type instructions committed (Count)
system.switch_cpus.commitStats0.committedControl::IsReturn       181756                       # Class of control type instructions committed (Count)
system.switch_cpus.exec_context.thread_0.numMatAluAccesses            0                       # Number of matrix alu accesses (Count)
system.switch_cpus.exec_context.thread_0.numCallsReturns       363513                       # Number of times a function call or return occured (Count)
system.switch_cpus.exec_context.thread_0.numMatInsts            0                       # Number of matrix instructions (Count)
system.switch_cpus.exec_context.thread_0.numIdleCycles            0                       # Number of idle cycles (Cycle)
system.switch_cpus.exec_context.thread_0.numBusyCycles     40717712                       # Number of busy cycles (Cycle)
system.switch_cpus.exec_context.thread_0.notIdleFraction            1                       # Percentage of non-idle cycles (Ratio)
system.switch_cpus.exec_context.thread_0.idleFraction            0                       # Percentage of idle cycles (Ratio)
system.switch_cpus.executeStats0.numInsts            0                       # Number of executed instructions (Count)
system.switch_cpus.executeStats0.numNop             0                       # Number of nop insts executed (Count)
system.switch_cpus.executeStats0.numBranches            0                       # Number of branches executed (Count)
system.switch_cpus.executeStats0.numLoadInsts            0                       # Number of load instructions executed (Count)
system.switch_cpus.executeStats0.numStoreInsts      4497653                       # Number of stores executed (Count)
system.switch_cpus.executeStats0.instRate            0                       # Inst execution rate ((Count/Cycle))
system.switch_cpus.executeStats0.numFpAluAccesses       322337                       # Number of float alu accesses (Count)
system.switch_cpus.executeStats0.numFpRegReads       337177                       # Number of times the floating registers were read (Count)
system.switch_cpus.executeStats0.numFpRegWrites        45938                       # Number of times the floating registers were written (Count)
system.switch_cpus.executeStats0.numIntAluAccesses     15486085                       # Number of integer alu accesses (Count)
system.switch_cpus.executeStats0.numIntRegReads     24883599                       # Number of times the integer registers were read (Count)
system.switch_cpus.executeStats0.numIntRegWrites     11781339                       # Number of times the integer registers were written (Count)
system.switch_cpus.executeStats0.numMemRefs      4497653                       # Number of memory refs (Count)
system.switch_cpus.executeStats0.numMiscRegReads      6625020                       # Number of times the Misc registers were read (Count)
system.switch_cpus.executeStats0.numMiscRegWrites          621                       # Number of times the Misc registers were written (Count)
system.switch_cpus.executeStats0.numVecAluAccesses            0                       # Number of vector alu accesses (Count)
system.switch_cpus.executeStats0.numDiscardedOps            0                       # Number of ops (including micro ops) which were discarded before commit (Count)
system.switch_cpus.fetchStats0.numInsts      10000043                       # Number of instructions fetched (thread level) (Count)
system.switch_cpus.fetchStats0.numOps        15558544                       # Number of ops (including micro ops) fetched (thread level) (Count)
system.switch_cpus.fetchStats0.fetchRate     0.245594                       # Number of inst fetches per cycle ((Count/Cycle))
system.switch_cpus.fetchStats0.numBranches      1150771                       # Number of branches fetched (Count)
system.switch_cpus.fetchStats0.branchRate     0.028262                       # Number of branch fetches per cycle (Ratio)
system.switch_cpus.fetchStats0.numFetchSuspends            0                       # Number of times Execute suspended instruction fetching (Count)
system.switch_cpus.mmu.dtb.rdAccesses         2786782                       # TLB accesses on read requests (Count)
system.switch_cpus.mmu.dtb.wrAccesses         1710892                       # TLB accesses on write requests (Count)
system.switch_cpus.mmu.dtb.rdMisses               951                       # TLB misses on read requests (Count)
system.switch_cpus.mmu.dtb.wrMisses              1100                       # TLB misses on write requests (Count)
system.switch_cpus.mmu.dtb.walker.power_state.pwrStateResidencyTicks::UNDEFINED  21458009500                       # Cumulative time (in ticks) in various power states (Tick)
system.switch_cpus.mmu.itb.rdAccesses               0                       # TLB accesses on read requests (Count)
system.switch_cpus.mmu.itb.wrAccesses        13385403                       # TLB accesses on write requests (Count)
system.switch_cpus.mmu.itb.rdMisses                 0                       # TLB misses on read requests (Count)
system.switch_cpus.mmu.itb.wrMisses               199                       # TLB misses on write requests (Count)
system.switch_cpus.mmu.itb.walker.power_state.pwrStateResidencyTicks::UNDEFINED  21458009500                       # Cumulative time (in ticks) in various power states (Tick)
system.switch_cpus.power_state.pwrStateResidencyTicks::OFF  21458009500                       # Cumulative time (in ticks) in various power states (Tick)
system.switch_cpus.thread_0.numInsts                0                       # Number of Instructions committed (Count)
system.switch_cpus.thread_0.numOps                  0                       # Number of Ops committed (Count)
system.switch_cpus.thread_0.numMemRefs              0                       # Number of Memory References (Count)
system.sys_port_proxy.power_state.pwrStateResidencyTicks::UNDEFINED  21458009500                       # Cumulative time (in ticks) in various power states (Tick)
system.voltage_domain.voltage                       1                       # Voltage in Volts (Volt)
system.workload.inst.arm                            0                       # number of arm instructions executed (Count)
system.workload.inst.quiesce                        0                       # number of quiesce instructions executed (Count)

---------- End Simulation Statistics   ----------
